
This summary file was generated by TurbSim (v1.06.00a-bjj, 30-Jul-2012) on 30-Jul-2012 at 13:17:44.


Runtime Options:

   2304876  Random seed #1
    789012  Random seed #2
         F  Output binary HH turbulence parameters?
         F  Output formatted turbulence parameters?
         F  Output AeroDyn HH files?
         T  Output AeroDyn FF files?
         T  Output BLADED FF files?
         F  Output tower data?
         F  Output formatted FF files?
         F  Output coherent turbulence time step file?
         T  Clockwise rotation when looking downwind?
 0 -  NONE  IEC turbulence models scaled to exact specified standard deviation
         T  Ensure output files contain one full period of periodic (time) output?


Turbine/Model Specifications:

        11  Vertical grid-point matrix dimension
        11  Horizontal grid-point matrix dimension
     0.050  Time step [seconds]
    60.000  Analysis time [seconds]
    60.000  Usable output time [seconds]
    90.600  Hub height [m]
   140.000  Grid height [m]
   140.000  Grid width [m]
     0.000  Vertical flow angle [degrees]
     0.000  Horizontal flow angle [degrees]


Meteorological Boundary Conditions:

    IECKAI  IEC Kaimal spectral model
         1  IEC standard: IEC 61400-1 Ed. 3: 2005
         A  IEC turbulence characteristic
       NTM  IEC Normal Turbulence Model
       N/A  IEC Extreme Turbulence Model (ETM) "c" parameter [m/s]
       LOG  Wind profile type
    90.600  Reference height [m]
     6.000  Reference wind speed [m/s]
       N/A  Jet height [m]
       N/A  Power law exponent
     0.000  Surface roughness length [m]


You have requested that the following file(s) be generated:

   D:\DATA\DesignCodes\preprocessors\TurbSim\UndistributedFiles\WorkingDirectory\InOut_10600.bts (AeroDyn/TurbSim full-field wind file)
   D:\DATA\DesignCodes\preprocessors\TurbSim\UndistributedFiles\WorkingDirectory\InOut_10600.wnd (AeroDyn/BLADED full-field wnd file)


Turbulence Simulation Scaling Parameter Summary:

   Turbulence model used                            =  IEC Kaimal
   Turbulence characteristic                        =  A
   IEC turbulence type                              =  Normal Turbulence Model
   IEC standard                                     =  IEC 61400-1 Ed. 3: 2005
   Mean wind speed at hub height                    =    6.000 m/s
   Expected value of turbulence intensity at 15 m/s =   16.000%
   Characteristic value of standard deviation       =    1.616 m/s
   Turbulence scale                                 =   42.000 m
   u-component integral scale                       =  340.200 m
   Coherency scale                                  =  340.200 m
   Characteristic value of hub turbulence intensity =   26.933%
   Gradient Richardson number                       =    0.000

   Wind profile type                                =  Logarithmic
   Equivalent power law exponent across rotor disk  =    0.080
   Mean shear across rotor disk                     =    0.007 (m/s)/m
   Assumed rotor diameter                           =  140.000 m
   Surface roughness length                         =    0.000 m

   Number of time steps in the FFT                  =     1200
   Number of time steps output                      =     1200


Mean Flow Angles:

   Vertical   =   0.0 degrees
   Horizontal =   0.0 degrees

Mean Wind Speed Profile:

   Height    Wind Speed   Horizontal Angle  U-comp (X)   V-comp (Y)   W-comp (Z)
     (m)        (m/s)         (degrees)       (m/s)        (m/s)        (m/s)   
   ------    ----------   ----------------  ----------   ----------   ----------
    160.6        6.26            0.00          6.26         0.00         0.00
    146.6        6.22            0.00          6.22         0.00         0.00
    132.6        6.18            0.00          6.18         0.00         0.00
    118.6        6.12            0.00          6.12         0.00         0.00
    104.6        6.07            0.00          6.07         0.00         0.00
     90.6        6.00            0.00          6.00         0.00         0.00
     76.6        5.92            0.00          5.92         0.00         0.00
     62.6        5.83            0.00          5.83         0.00         0.00
     48.6        5.71            0.00          5.71         0.00         0.00
     34.6        5.56            0.00          5.56         0.00         0.00
     20.6        5.32            0.00          5.32         0.00         0.00


Harvested Random Seeds after Generation of the Random Numbers:

   1886133431 Harvested seed # 1
   1646459474 Harvested seed # 2


Hub-Height Simulated Turbulence Statistical Summary:

   Type of Wind        Min (m/s)   Mean (m/s)    Max (m/s)  Sigma (m/s)       TI (%)
   ----------------    ---------   ----------    ---------  -----------       ------
   Longitudinal (u)         4.30         6.00         8.42        0.793       13.217
   Lateral (v)             -2.09         0.00         2.59        1.009       16.822
   Vertical (w)            -2.43         0.00         2.01        0.741       12.355
   U component              4.30         6.00         8.42        0.793       13.217
   V component             -2.09         0.00         2.59        1.009       16.822
   W component             -2.43         0.00         2.01        0.741       12.355
   Horizontal (U&V)         4.32         6.08         8.55        0.808       13.280
   Total                    4.32         6.13         8.65        0.808       13.191

                       Min Reynolds     Mean Reynolds    Max Reynolds    Correlation
   Product             Stress (m/s)^2   Stress (m/s)^2   Stress (m/s)^2  Coefficient
   ----------------    --------------   --------------   --------------  -----------
   u'w'                     -1.589             0.269             3.146         0.457
   u'v'                     -4.421            -0.187             2.214        -0.234
   v'w'                     -3.262            -0.089             2.002        -0.119


   Friction Velocity (Ustar)  =      0.519 m/s
   Maximum Instantaneous TKE  =      5.361 (m/s)^2
   Maximum Instantaneous CTKE =      2.947 (m/s)^2


Grid Point Variance Summary:

   Y-coord  -70.00  -56.00  -42.00  -28.00  -14.00    0.00   14.00   28.00   42.00   56.00   70.00

   Height   Standard deviation at grid points for the u component:
   160.60    0.862   1.314   0.941   1.013   1.012   1.124   0.799   0.773   1.130   0.883   0.626
   146.60    1.363   1.356   1.342   0.865   1.048   1.051   1.138   0.983   0.993   1.145   0.926
   132.60    1.169   1.094   1.006   0.944   0.704   0.757   1.034   0.853   0.960   0.979   0.701
   118.60    1.180   0.739   0.719   0.798   0.762   1.226   0.891   0.856   1.161   1.019   0.881
   104.60    0.873   0.844   0.785   1.080   1.139   1.240   1.136   1.313   1.216   1.011   1.092
    90.60    0.865   0.872   1.053   0.772   0.918   0.793   0.944   1.128   0.879   1.250   0.687
    76.60    1.116   1.104   0.960   0.958   0.644   0.890   0.876   1.099   1.162   1.488   1.086
    62.60    1.081   0.840   1.079   0.962   0.982   1.164   1.388   1.002   1.069   1.499   0.980
    48.60    0.875   0.854   1.031   0.913   0.889   1.073   1.237   1.428   0.878   1.309   1.525
    34.60    0.745   0.763   0.951   0.966   0.748   1.026   0.756   1.149   1.090   1.151   1.266
    20.60    0.990   0.667   0.866   0.917   0.680   0.866   1.076   1.057   0.985   0.805   1.067

   Height   Standard deviation at grid points for the v component:
   160.60    1.009   1.009   1.009   1.009   1.009   1.009   1.009   1.009   1.009   1.009   1.009
   146.60    1.009   1.009   1.009   1.009   1.009   1.009   1.009   1.009   1.009   1.009   1.009
   132.60    1.009   1.009   1.009   1.009   1.009   1.009   1.009   1.009   1.009   1.009   1.009
   118.60    1.009   1.009   1.009   1.009   1.009   1.009   1.009   1.009   1.009   1.009   1.009
   104.60    1.009   1.009   1.009   1.009   1.009   1.009   1.009   1.009   1.009   1.009   1.009
    90.60    1.009   1.009   1.009   1.009   1.009   1.009   1.009   1.009   1.009   1.009   1.009
    76.60    1.009   1.009   1.009   1.009   1.009   1.009   1.009   1.009   1.009   1.009   1.009
    62.60    1.009   1.009   1.009   1.009   1.009   1.009   1.009   1.009   1.009   1.009   1.009
    48.60    1.009   1.009   1.009   1.009   1.009   1.009   1.009   1.009   1.009   1.009   1.009
    34.60    1.009   1.009   1.009   1.009   1.009   1.009   1.009   1.009   1.009   1.009   1.009
    20.60    1.009   1.009   1.009   1.009   1.009   1.009   1.009   1.009   1.009   1.009   1.009

   Height   Standard deviation at grid points for the w component:
   160.60    0.741   0.741   0.741   0.741   0.741   0.741   0.741   0.741   0.741   0.741   0.741
   146.60    0.741   0.741   0.741   0.741   0.741   0.741   0.741   0.741   0.741   0.741   0.741
   132.60    0.741   0.741   0.741   0.741   0.741   0.741   0.741   0.741   0.741   0.741   0.741
   118.60    0.741   0.741   0.741   0.741   0.741   0.741   0.741   0.741   0.741   0.741   0.741
   104.60    0.741   0.741   0.741   0.741   0.741   0.741   0.741   0.741   0.741   0.741   0.741
    90.60    0.741   0.741   0.741   0.741   0.741   0.741   0.741   0.741   0.741   0.741   0.741
    76.60    0.741   0.741   0.741   0.741   0.741   0.741   0.741   0.741   0.741   0.741   0.741
    62.60    0.741   0.741   0.741   0.741   0.741   0.741   0.741   0.741   0.741   0.741   0.741
    48.60    0.741   0.741   0.741   0.741   0.741   0.741   0.741   0.741   0.741   0.741   0.741
    34.60    0.741   0.741   0.741   0.741   0.741   0.741   0.741   0.741   0.741   0.741   0.741
    20.60    0.741   0.741   0.741   0.741   0.741   0.741   0.741   0.741   0.741   0.741   0.741

   Mean standard deviation across all grid points:
      u component:    1.000 m/s
      v component:    1.009 m/s
      w component:    0.741 m/s


U-component (X) statistics from the hub grid point:

   Mean =   6.0000 m/s
   TI   =  13.2172 %


Normalizing Parameters for Binary Data (approximate statistics):

   UBar  =   6.0000 m/s
   TI(u) =  13.2172 %
   TI(v) =  16.8220 %
   TI(w) =  12.3547 %

   Height Offset =   0.0000 m
   Grid Base     =  20.6000 m

Creating a PERIODIC output file.

Nyquist frequency of turbulent wind field =        10.000 Hz


Processing complete.  0.40625 CPU seconds used.
